[board]
type=System
children=apicbridge bridge cache_hierarchy clk_domain dvfs_handler iobus memory pc processor workload
auto_unlink_shared_backstore=false
cache_line_size=64
eventq_index=0
exit_on_work_items=true
init_param=0
m5ops_base=4294901760
mem_mode=atomic_noncaching
mem_ranges=0:3221225472 3221225472:3222274048
memories=board.memory.module
mmap_using_noreserve=false
multi_thread=false
num_work_ids=16
readfile=output/blackshoales-medium/local/readfile
redirect_paths=
shadow_rom_ranges=
shared_backstore=
symbolfile=
thermal_components=
thermal_model=Null
work_begin_ckpt_count=0
work_begin_cpu_id_exit=-1
work_begin_exit_count=0
work_cpus_ckpt_count=0
work_end_ckpt_count=0
work_end_exit_count=0
work_item_id=-1
workload=board.workload
system_port=board.cache_hierarchy.membus.cpu_side_ports[1]

[board.apicbridge]
type=Bridge
children=power_state
clk_domain=board.clk_domain
delay=50000
eventq_index=0
power_model=
power_state=board.apicbridge.power_state
ranges=11529215046068469760:11529215046068473855
req_size=16
resp_size=16
cpu_side_port=board.iobus.mem_side_ports[0]
mem_side_port=board.cache_hierarchy.membus.cpu_side_ports[0]

[board.apicbridge.power_state]
type=PowerState
clk_gate_bins=20
clk_gate_max=1000000000000
clk_gate_min=1000
default_state=UNDEFINED
eventq_index=0
leaders=
possible_states=

[board.bridge]
type=Bridge
children=power_state
clk_domain=board.clk_domain
delay=50000
eventq_index=0
power_model=
power_state=board.bridge.power_state
ranges=3221225472:4294901760 9223372036854775808:11529215046068469759 13835058055282163712:18446744073709551615
req_size=16
resp_size=16
cpu_side_port=board.cache_hierarchy.membus.mem_side_ports[0]
mem_side_port=board.iobus.cpu_side_ports[0]

[board.bridge.power_state]
type=PowerState
clk_gate_bins=20
clk_gate_max=1000000000000
clk_gate_min=1000
default_state=UNDEFINED
eventq_index=0
leaders=
possible_states=

[board.cache_hierarchy]
type=SubSystem
children=dptw_caches iocache iptw_caches l1dcaches l1icaches l2bus l2cache membus
eventq_index=0
thermal_domain=Null

[board.cache_hierarchy.dptw_caches]
type=Cache
children=power_state replacement_policy tags
addr_ranges=0:18446744073709551615
assoc=4
clk_domain=board.clk_domain
clusivity=mostly_incl
compressor=Null
data_latency=1
demand_mshr_reserve=1
eventq_index=0
is_read_only=false
max_miss_count=0
move_contractions=true
mshrs=20
power_model=
power_state=board.cache_hierarchy.dptw_caches.power_state
prefetch_on_access=false
prefetch_on_pf_hit=false
prefetcher=Null
replace_expansions=true
replacement_policy=board.cache_hierarchy.dptw_caches.replacement_policy
response_latency=1
sequential_access=false
size=8192
system=board
tag_latency=1
tags=board.cache_hierarchy.dptw_caches.tags
tgts_per_mshr=12
warmup_percentage=0
write_allocator=Null
write_buffers=8
writeback_clean=false
cpu_side=board.processor.start.core.mmu.dtb.walker.port
mem_side=board.cache_hierarchy.l2bus.cpu_side_ports[3]

[board.cache_hierarchy.dptw_caches.power_state]
type=PowerState
clk_gate_bins=20
clk_gate_max=1000000000000
clk_gate_min=1000
default_state=UNDEFINED
eventq_index=0
leaders=
possible_states=

[board.cache_hierarchy.dptw_caches.replacement_policy]
type=LRURP
eventq_index=0

[board.cache_hierarchy.dptw_caches.tags]
type=BaseSetAssoc
children=indexing_policy power_state
assoc=4
block_size=64
clk_domain=board.clk_domain
entry_size=64
eventq_index=0
indexing_policy=board.cache_hierarchy.dptw_caches.tags.indexing_policy
power_model=
power_state=board.cache_hierarchy.dptw_caches.tags.power_state
replacement_policy=board.cache_hierarchy.dptw_caches.replacement_policy
sequential_access=false
size=8192
system=board
tag_latency=1
warmup_percentage=0

[board.cache_hierarchy.dptw_caches.tags.indexing_policy]
type=SetAssociative
assoc=4
entry_size=64
eventq_index=0
size=8192

[board.cache_hierarchy.dptw_caches.tags.power_state]
type=PowerState
clk_gate_bins=20
clk_gate_max=1000000000000
clk_gate_min=1000
default_state=UNDEFINED
eventq_index=0
leaders=
possible_states=

[board.cache_hierarchy.iocache]
type=Cache
children=power_state replacement_policy tags
addr_ranges=0:3221225472 3221225472:3222274048
assoc=8
clk_domain=board.clk_domain
clusivity=mostly_incl
compressor=Null
data_latency=50
demand_mshr_reserve=1
eventq_index=0
is_read_only=false
max_miss_count=0
move_contractions=true
mshrs=20
power_model=
power_state=board.cache_hierarchy.iocache.power_state
prefetch_on_access=false
prefetch_on_pf_hit=false
prefetcher=Null
replace_expansions=true
replacement_policy=board.cache_hierarchy.iocache.replacement_policy
response_latency=50
sequential_access=false
size=1024
system=board
tag_latency=50
tags=board.cache_hierarchy.iocache.tags
tgts_per_mshr=12
warmup_percentage=0
write_allocator=Null
write_buffers=8
writeback_clean=false
cpu_side=board.iobus.mem_side_ports[16]
mem_side=board.cache_hierarchy.membus.cpu_side_ports[2]

[board.cache_hierarchy.iocache.power_state]
type=PowerState
clk_gate_bins=20
clk_gate_max=1000000000000
clk_gate_min=1000
default_state=UNDEFINED
eventq_index=0
leaders=
possible_states=

[board.cache_hierarchy.iocache.replacement_policy]
type=LRURP
eventq_index=0

[board.cache_hierarchy.iocache.tags]
type=BaseSetAssoc
children=indexing_policy power_state
assoc=8
block_size=64
clk_domain=board.clk_domain
entry_size=64
eventq_index=0
indexing_policy=board.cache_hierarchy.iocache.tags.indexing_policy
power_model=
power_state=board.cache_hierarchy.iocache.tags.power_state
replacement_policy=board.cache_hierarchy.iocache.replacement_policy
sequential_access=false
size=1024
system=board
tag_latency=50
warmup_percentage=0

[board.cache_hierarchy.iocache.tags.indexing_policy]
type=SetAssociative
assoc=8
entry_size=64
eventq_index=0
size=1024

[board.cache_hierarchy.iocache.tags.power_state]
type=PowerState
clk_gate_bins=20
clk_gate_max=1000000000000
clk_gate_min=1000
default_state=UNDEFINED
eventq_index=0
leaders=
possible_states=

[board.cache_hierarchy.iptw_caches]
type=Cache
children=power_state replacement_policy tags
addr_ranges=0:18446744073709551615
assoc=4
clk_domain=board.clk_domain
clusivity=mostly_incl
compressor=Null
data_latency=1
demand_mshr_reserve=1
eventq_index=0
is_read_only=false
max_miss_count=0
move_contractions=true
mshrs=20
power_model=
power_state=board.cache_hierarchy.iptw_caches.power_state
prefetch_on_access=false
prefetch_on_pf_hit=false
prefetcher=Null
replace_expansions=true
replacement_policy=board.cache_hierarchy.iptw_caches.replacement_policy
response_latency=1
sequential_access=false
size=8192
system=board
tag_latency=1
tags=board.cache_hierarchy.iptw_caches.tags
tgts_per_mshr=12
warmup_percentage=0
write_allocator=Null
write_buffers=8
writeback_clean=false
cpu_side=board.processor.start.core.mmu.itb.walker.port
mem_side=board.cache_hierarchy.l2bus.cpu_side_ports[2]

[board.cache_hierarchy.iptw_caches.power_state]
type=PowerState
clk_gate_bins=20
clk_gate_max=1000000000000
clk_gate_min=1000
default_state=UNDEFINED
eventq_index=0
leaders=
possible_states=

[board.cache_hierarchy.iptw_caches.replacement_policy]
type=LRURP
eventq_index=0

[board.cache_hierarchy.iptw_caches.tags]
type=BaseSetAssoc
children=indexing_policy power_state
assoc=4
block_size=64
clk_domain=board.clk_domain
entry_size=64
eventq_index=0
indexing_policy=board.cache_hierarchy.iptw_caches.tags.indexing_policy
power_model=
power_state=board.cache_hierarchy.iptw_caches.tags.power_state
replacement_policy=board.cache_hierarchy.iptw_caches.replacement_policy
sequential_access=false
size=8192
system=board
tag_latency=1
warmup_percentage=0

[board.cache_hierarchy.iptw_caches.tags.indexing_policy]
type=SetAssociative
assoc=4
entry_size=64
eventq_index=0
size=8192

[board.cache_hierarchy.iptw_caches.tags.power_state]
type=PowerState
clk_gate_bins=20
clk_gate_max=1000000000000
clk_gate_min=1000
default_state=UNDEFINED
eventq_index=0
leaders=
possible_states=

[board.cache_hierarchy.l1dcaches]
type=Cache
children=power_state prefetcher replacement_policy tags
addr_ranges=0:18446744073709551615
assoc=8
clk_domain=board.clk_domain
clusivity=mostly_incl
compressor=Null
data_latency=1
demand_mshr_reserve=1
eventq_index=0
is_read_only=false
max_miss_count=0
move_contractions=true
mshrs=16
power_model=
power_state=board.cache_hierarchy.l1dcaches.power_state
prefetch_on_access=false
prefetch_on_pf_hit=false
prefetcher=board.cache_hierarchy.l1dcaches.prefetcher
replace_expansions=true
replacement_policy=board.cache_hierarchy.l1dcaches.replacement_policy
response_latency=1
sequential_access=false
size=16384
system=board
tag_latency=1
tags=board.cache_hierarchy.l1dcaches.tags
tgts_per_mshr=20
warmup_percentage=0
write_allocator=Null
write_buffers=8
writeback_clean=false
cpu_side=board.processor.start.core.dcache_port
mem_side=board.cache_hierarchy.l2bus.cpu_side_ports[1]

[board.cache_hierarchy.l1dcaches.power_state]
type=PowerState
clk_gate_bins=20
clk_gate_max=1000000000000
clk_gate_min=1000
default_state=UNDEFINED
eventq_index=0
leaders=
possible_states=

[board.cache_hierarchy.l1dcaches.prefetcher]
type=StridePrefetcher
children=power_state table_indexing_policy table_replacement_policy
block_size=64
cache_snoop=false
clk_domain=board.clk_domain
confidence_counter_bits=3
confidence_threshold=50
degree=4
eventq_index=0
initial_confidence=4
latency=1
max_prefetch_requests_with_pending_translation=32
on_data=true
on_inst=false
on_miss=false
on_read=true
on_write=true
page_bytes=4096
power_model=
power_state=board.cache_hierarchy.l1dcaches.prefetcher.power_state
prefetch_on_access=false
prefetch_on_pf_hit=false
queue_filter=true
queue_size=32
queue_squash=true
sys=board
table_assoc=4
table_entries=64
table_indexing_policy=board.cache_hierarchy.l1dcaches.prefetcher.table_indexing_policy
table_replacement_policy=board.cache_hierarchy.l1dcaches.prefetcher.table_replacement_policy
tag_prefetch=true
throttle_control_percentage=0
use_requestor_id=true
use_virtual_addresses=false

[board.cache_hierarchy.l1dcaches.prefetcher.power_state]
type=PowerState
clk_gate_bins=20
clk_gate_max=1000000000000
clk_gate_min=1000
default_state=UNDEFINED
eventq_index=0
leaders=
possible_states=

[board.cache_hierarchy.l1dcaches.prefetcher.table_indexing_policy]
type=StridePrefetcherHashedSetAssociative
assoc=4
entry_size=1
eventq_index=0
size=64

[board.cache_hierarchy.l1dcaches.prefetcher.table_replacement_policy]
type=RandomRP
eventq_index=0

[board.cache_hierarchy.l1dcaches.replacement_policy]
type=LRURP
eventq_index=0

[board.cache_hierarchy.l1dcaches.tags]
type=BaseSetAssoc
children=indexing_policy power_state
assoc=8
block_size=64
clk_domain=board.clk_domain
entry_size=64
eventq_index=0
indexing_policy=board.cache_hierarchy.l1dcaches.tags.indexing_policy
power_model=
power_state=board.cache_hierarchy.l1dcaches.tags.power_state
replacement_policy=board.cache_hierarchy.l1dcaches.replacement_policy
sequential_access=false
size=16384
system=board
tag_latency=1
warmup_percentage=0

[board.cache_hierarchy.l1dcaches.tags.indexing_policy]
type=SetAssociative
assoc=8
entry_size=64
eventq_index=0
size=16384

[board.cache_hierarchy.l1dcaches.tags.power_state]
type=PowerState
clk_gate_bins=20
clk_gate_max=1000000000000
clk_gate_min=1000
default_state=UNDEFINED
eventq_index=0
leaders=
possible_states=

[board.cache_hierarchy.l1icaches]
type=Cache
children=power_state prefetcher replacement_policy tags
addr_ranges=0:18446744073709551615
assoc=8
clk_domain=board.clk_domain
clusivity=mostly_incl
compressor=Null
data_latency=1
demand_mshr_reserve=1
eventq_index=0
is_read_only=false
max_miss_count=0
move_contractions=true
mshrs=16
power_model=
power_state=board.cache_hierarchy.l1icaches.power_state
prefetch_on_access=false
prefetch_on_pf_hit=false
prefetcher=board.cache_hierarchy.l1icaches.prefetcher
replace_expansions=true
replacement_policy=board.cache_hierarchy.l1icaches.replacement_policy
response_latency=1
sequential_access=false
size=16384
system=board
tag_latency=1
tags=board.cache_hierarchy.l1icaches.tags
tgts_per_mshr=20
warmup_percentage=0
write_allocator=Null
write_buffers=8
writeback_clean=false
cpu_side=board.processor.start.core.icache_port
mem_side=board.cache_hierarchy.l2bus.cpu_side_ports[0]

[board.cache_hierarchy.l1icaches.power_state]
type=PowerState
clk_gate_bins=20
clk_gate_max=1000000000000
clk_gate_min=1000
default_state=UNDEFINED
eventq_index=0
leaders=
possible_states=

[board.cache_hierarchy.l1icaches.prefetcher]
type=StridePrefetcher
children=power_state table_indexing_policy table_replacement_policy
block_size=64
cache_snoop=false
clk_domain=board.clk_domain
confidence_counter_bits=3
confidence_threshold=50
degree=4
eventq_index=0
initial_confidence=4
latency=1
max_prefetch_requests_with_pending_translation=32
on_data=true
on_inst=false
on_miss=false
on_read=true
on_write=true
page_bytes=4096
power_model=
power_state=board.cache_hierarchy.l1icaches.prefetcher.power_state
prefetch_on_access=false
prefetch_on_pf_hit=false
queue_filter=true
queue_size=32
queue_squash=true
sys=board
table_assoc=4
table_entries=64
table_indexing_policy=board.cache_hierarchy.l1icaches.prefetcher.table_indexing_policy
table_replacement_policy=board.cache_hierarchy.l1icaches.prefetcher.table_replacement_policy
tag_prefetch=true
throttle_control_percentage=0
use_requestor_id=true
use_virtual_addresses=false

[board.cache_hierarchy.l1icaches.prefetcher.power_state]
type=PowerState
clk_gate_bins=20
clk_gate_max=1000000000000
clk_gate_min=1000
default_state=UNDEFINED
eventq_index=0
leaders=
possible_states=

[board.cache_hierarchy.l1icaches.prefetcher.table_indexing_policy]
type=StridePrefetcherHashedSetAssociative
assoc=4
entry_size=1
eventq_index=0
size=64

[board.cache_hierarchy.l1icaches.prefetcher.table_replacement_policy]
type=RandomRP
eventq_index=0

[board.cache_hierarchy.l1icaches.replacement_policy]
type=LRURP
eventq_index=0

[board.cache_hierarchy.l1icaches.tags]
type=BaseSetAssoc
children=indexing_policy power_state
assoc=8
block_size=64
clk_domain=board.clk_domain
entry_size=64
eventq_index=0
indexing_policy=board.cache_hierarchy.l1icaches.tags.indexing_policy
power_model=
power_state=board.cache_hierarchy.l1icaches.tags.power_state
replacement_policy=board.cache_hierarchy.l1icaches.replacement_policy
sequential_access=false
size=16384
system=board
tag_latency=1
warmup_percentage=0

[board.cache_hierarchy.l1icaches.tags.indexing_policy]
type=SetAssociative
assoc=8
entry_size=64
eventq_index=0
size=16384

[board.cache_hierarchy.l1icaches.tags.power_state]
type=PowerState
clk_gate_bins=20
clk_gate_max=1000000000000
clk_gate_min=1000
default_state=UNDEFINED
eventq_index=0
leaders=
possible_states=

[board.cache_hierarchy.l2bus]
type=CoherentXBar
children=power_state snoop_filter
clk_domain=board.clk_domain
eventq_index=0
forward_latency=0
frontend_latency=1
header_latency=1
max_outstanding_snoops=512
max_routing_table_size=512
point_of_coherency=false
point_of_unification=true
power_model=
power_state=board.cache_hierarchy.l2bus.power_state
response_latency=1
snoop_filter=board.cache_hierarchy.l2bus.snoop_filter
snoop_response_latency=1
system=board
use_default_range=false
width=32
cpu_side_ports=board.cache_hierarchy.l1icaches.mem_side board.cache_hierarchy.l1dcaches.mem_side board.cache_hierarchy.iptw_caches.mem_side board.cache_hierarchy.dptw_caches.mem_side
mem_side_ports=board.cache_hierarchy.l2cache.cpu_side

[board.cache_hierarchy.l2bus.power_state]
type=PowerState
clk_gate_bins=20
clk_gate_max=1000000000000
clk_gate_min=1000
default_state=UNDEFINED
eventq_index=0
leaders=
possible_states=

[board.cache_hierarchy.l2bus.snoop_filter]
type=SnoopFilter
eventq_index=0
lookup_latency=0
max_capacity=8388608
system=board

[board.cache_hierarchy.l2cache]
type=Cache
children=power_state prefetcher replacement_policy tags
addr_ranges=0:18446744073709551615
assoc=16
clk_domain=board.clk_domain
clusivity=mostly_incl
compressor=Null
data_latency=10
demand_mshr_reserve=1
eventq_index=0
is_read_only=false
max_miss_count=0
move_contractions=true
mshrs=20
power_model=
power_state=board.cache_hierarchy.l2cache.power_state
prefetch_on_access=false
prefetch_on_pf_hit=false
prefetcher=board.cache_hierarchy.l2cache.prefetcher
replace_expansions=true
replacement_policy=board.cache_hierarchy.l2cache.replacement_policy
response_latency=1
sequential_access=false
size=131072
system=board
tag_latency=10
tags=board.cache_hierarchy.l2cache.tags
tgts_per_mshr=12
warmup_percentage=0
write_allocator=Null
write_buffers=8
writeback_clean=false
cpu_side=board.cache_hierarchy.l2bus.mem_side_ports[0]
mem_side=board.cache_hierarchy.membus.cpu_side_ports[4]

[board.cache_hierarchy.l2cache.power_state]
type=PowerState
clk_gate_bins=20
clk_gate_max=1000000000000
clk_gate_min=1000
default_state=UNDEFINED
eventq_index=0
leaders=
possible_states=

[board.cache_hierarchy.l2cache.prefetcher]
type=StridePrefetcher
children=power_state table_indexing_policy table_replacement_policy
block_size=64
cache_snoop=false
clk_domain=board.clk_domain
confidence_counter_bits=3
confidence_threshold=50
degree=4
eventq_index=0
initial_confidence=4
latency=1
max_prefetch_requests_with_pending_translation=32
on_data=true
on_inst=false
on_miss=false
on_read=true
on_write=true
page_bytes=4096
power_model=
power_state=board.cache_hierarchy.l2cache.prefetcher.power_state
prefetch_on_access=false
prefetch_on_pf_hit=false
queue_filter=true
queue_size=32
queue_squash=true
sys=board
table_assoc=4
table_entries=64
table_indexing_policy=board.cache_hierarchy.l2cache.prefetcher.table_indexing_policy
table_replacement_policy=board.cache_hierarchy.l2cache.prefetcher.table_replacement_policy
tag_prefetch=true
throttle_control_percentage=0
use_requestor_id=true
use_virtual_addresses=false

[board.cache_hierarchy.l2cache.prefetcher.power_state]
type=PowerState
clk_gate_bins=20
clk_gate_max=1000000000000
clk_gate_min=1000
default_state=UNDEFINED
eventq_index=0
leaders=
possible_states=

[board.cache_hierarchy.l2cache.prefetcher.table_indexing_policy]
type=StridePrefetcherHashedSetAssociative
assoc=4
entry_size=1
eventq_index=0
size=64

[board.cache_hierarchy.l2cache.prefetcher.table_replacement_policy]
type=RandomRP
eventq_index=0

[board.cache_hierarchy.l2cache.replacement_policy]
type=LRURP
eventq_index=0

[board.cache_hierarchy.l2cache.tags]
type=BaseSetAssoc
children=indexing_policy power_state
assoc=16
block_size=64
clk_domain=board.clk_domain
entry_size=64
eventq_index=0
indexing_policy=board.cache_hierarchy.l2cache.tags.indexing_policy
power_model=
power_state=board.cache_hierarchy.l2cache.tags.power_state
replacement_policy=board.cache_hierarchy.l2cache.replacement_policy
sequential_access=false
size=131072
system=board
tag_latency=10
warmup_percentage=0

[board.cache_hierarchy.l2cache.tags.indexing_policy]
type=SetAssociative
assoc=16
entry_size=64
eventq_index=0
size=131072

[board.cache_hierarchy.l2cache.tags.power_state]
type=PowerState
clk_gate_bins=20
clk_gate_max=1000000000000
clk_gate_min=1000
default_state=UNDEFINED
eventq_index=0
leaders=
possible_states=

[board.cache_hierarchy.membus]
type=CoherentXBar
children=badaddr_responder power_state snoop_filter
clk_domain=board.clk_domain
eventq_index=0
forward_latency=4
frontend_latency=3
header_latency=1
max_outstanding_snoops=512
max_routing_table_size=512
point_of_coherency=true
point_of_unification=true
power_model=
power_state=board.cache_hierarchy.membus.power_state
response_latency=2
snoop_filter=board.cache_hierarchy.membus.snoop_filter
snoop_response_latency=4
system=board
use_default_range=false
width=64
cpu_side_ports=board.apicbridge.mem_side_port board.system_port board.cache_hierarchy.iocache.mem_side board.processor.start.core.interrupts.int_requestor board.cache_hierarchy.l2cache.mem_side
default=board.cache_hierarchy.membus.badaddr_responder.pio
mem_side_ports=board.bridge.cpu_side_port board.memory.module.port board.processor.start.core.interrupts.pio board.processor.start.core.interrupts.int_responder

[board.cache_hierarchy.membus.badaddr_responder]
type=IsaFake
children=power_state
clk_domain=board.clk_domain
eventq_index=0
fake_mem=false
pio_addr=0
pio_latency=100000
pio_size=8
power_model=
power_state=board.cache_hierarchy.membus.badaddr_responder.power_state
ret_bad_addr=true
ret_data16=65535
ret_data32=4294967295
ret_data64=18446744073709551615
ret_data8=255
system=board
update_data=false
warn_access=
pio=board.cache_hierarchy.membus.default

[board.cache_hierarchy.membus.badaddr_responder.power_state]
type=PowerState
clk_gate_bins=20
clk_gate_max=1000000000000
clk_gate_min=1000
default_state=UNDEFINED
eventq_index=0
leaders=
possible_states=

[board.cache_hierarchy.membus.power_state]
type=PowerState
clk_gate_bins=20
clk_gate_max=1000000000000
clk_gate_min=1000
default_state=UNDEFINED
eventq_index=0
leaders=
possible_states=

[board.cache_hierarchy.membus.snoop_filter]
type=SnoopFilter
eventq_index=0
lookup_latency=1
max_capacity=8388608
system=board

[board.clk_domain]
type=SrcClockDomain
children=voltage_domain
clock=313
domain_id=-1
eventq_index=0
init_perf_level=0
voltage_domain=board.clk_domain.voltage_domain

[board.clk_domain.voltage_domain]
type=VoltageDomain
eventq_index=0
voltage=1.0

[board.dvfs_handler]
type=DVFSHandler
domains=
enable=false
eventq_index=0
sys_clk_domain=board.clk_domain
transition_latency=100000000

[board.iobus]
type=NoncoherentXBar
children=power_state
clk_domain=board.clk_domain
eventq_index=0
forward_latency=1
frontend_latency=2
header_latency=1
power_model=
power_state=board.iobus.power_state
response_latency=2
use_default_range=false
width=16
cpu_side_ports=board.bridge.mem_side_port board.pc.south_bridge.ide.dma board.pc.south_bridge.io_apic.int_requestor
default=board.pc.default_bus.cpu_side_ports[0]
mem_side_ports=board.apicbridge.cpu_side_port board.pc.south_bridge.cmos.pio board.pc.south_bridge.dma1.pio board.pc.south_bridge.ide.pio board.pc.south_bridge.keyboard.pio board.pc.south_bridge.pic1.pio board.pc.south_bridge.pic2.pio board.pc.south_bridge.pit.pio board.pc.south_bridge.speaker.pio board.pc.south_bridge.io_apic.pio board.pc.com_1.pio board.pc.fake_com_2.pio board.pc.fake_com_3.pio board.pc.fake_com_4.pio board.pc.fake_floppy.pio board.pc.pci_host.pio board.cache_hierarchy.iocache.cpu_side

[board.iobus.power_state]
type=PowerState
clk_gate_bins=20
clk_gate_max=1000000000000
clk_gate_min=1000
default_state=UNDEFINED
eventq_index=0
leaders=
possible_states=

[board.memory]
type=SubSystem
children=module
eventq_index=0
thermal_domain=Null

[board.memory.module]
type=SimpleMemory
children=power_state
bandwidth=58.000000
clk_domain=board.clk_domain
conf_table_reported=true
eventq_index=0
image_file=
in_addr_map=true
kvm_map=true
latency=30000
latency_var=0
null=false
power_model=
power_state=board.memory.module.power_state
range=0:3221225472
writeable=true
port=board.cache_hierarchy.membus.mem_side_ports[1]

[board.memory.module.power_state]
type=PowerState
clk_gate_bins=20
clk_gate_max=1000000000000
clk_gate_min=1000
default_state=UNDEFINED
eventq_index=0
leaders=
possible_states=

[board.pc]
type=Pc
children=bad_addr com_1 default_bus empty_isa fake_com_2 fake_com_3 fake_com_4 fake_floppy pci_host south_bridge
eventq_index=0
south_bridge=board.pc.south_bridge
system=board

[board.pc.bad_addr]
type=IsaFake
children=power_state
clk_domain=board.clk_domain
eventq_index=0
fake_mem=false
pio_addr=0
pio_latency=100000
pio_size=8
power_model=
power_state=board.pc.bad_addr.power_state
ret_bad_addr=true
ret_data16=65535
ret_data32=4294967295
ret_data64=18446744073709551615
ret_data8=255
system=board
update_data=false
warn_access=
pio=board.pc.default_bus.default

[board.pc.bad_addr.power_state]
type=PowerState
clk_gate_bins=20
clk_gate_max=1000000000000
clk_gate_min=1000
default_state=UNDEFINED
eventq_index=0
leaders=
possible_states=

[board.pc.com_1]
type=Uart8250
children=device power_state
clk_domain=board.clk_domain
device=board.pc.com_1.device
eventq_index=0
pio_addr=9223372036854776824
pio_latency=100000
pio_size=8
platform=board.pc
power_model=
power_state=board.pc.com_1.power_state
system=board
pio=board.iobus.mem_side_ports[10]

[board.pc.com_1.device]
type=Terminal
eventq_index=0
number=0
outfile=file
port=#3456

[board.pc.com_1.power_state]
type=PowerState
clk_gate_bins=20
clk_gate_max=1000000000000
clk_gate_min=1000
default_state=UNDEFINED
eventq_index=0
leaders=
possible_states=

[board.pc.default_bus]
type=NoncoherentXBar
children=power_state
clk_domain=board.clk_domain
eventq_index=0
forward_latency=1
frontend_latency=2
header_latency=1
power_model=
power_state=board.pc.default_bus.power_state
response_latency=2
use_default_range=false
width=16
cpu_side_ports=board.iobus.default
default=board.pc.bad_addr.pio
mem_side_ports=board.pc.empty_isa.pio

[board.pc.default_bus.power_state]
type=PowerState
clk_gate_bins=20
clk_gate_max=1000000000000
clk_gate_min=1000
default_state=UNDEFINED
eventq_index=0
leaders=
possible_states=

[board.pc.empty_isa]
type=IsaFake
children=power_state
clk_domain=board.clk_domain
eventq_index=0
fake_mem=false
pio_addr=9223372036854775808
pio_latency=100000
pio_size=65536
power_model=
power_state=board.pc.empty_isa.power_state
ret_bad_addr=false
ret_data16=0
ret_data32=0
ret_data64=0
ret_data8=0
system=board
update_data=false
warn_access=
pio=board.pc.default_bus.mem_side_ports[0]

[board.pc.empty_isa.power_state]
type=PowerState
clk_gate_bins=20
clk_gate_max=1000000000000
clk_gate_min=1000
default_state=UNDEFINED
eventq_index=0
leaders=
possible_states=

[board.pc.fake_com_2]
type=IsaFake
children=power_state
clk_domain=board.clk_domain
eventq_index=0
fake_mem=false
pio_addr=9223372036854776568
pio_latency=100000
pio_size=8
power_model=
power_state=board.pc.fake_com_2.power_state
ret_bad_addr=false
ret_data16=65535
ret_data32=4294967295
ret_data64=18446744073709551615
ret_data8=255
system=board
update_data=false
warn_access=
pio=board.iobus.mem_side_ports[11]

[board.pc.fake_com_2.power_state]
type=PowerState
clk_gate_bins=20
clk_gate_max=1000000000000
clk_gate_min=1000
default_state=UNDEFINED
eventq_index=0
leaders=
possible_states=

[board.pc.fake_com_3]
type=IsaFake
children=power_state
clk_domain=board.clk_domain
eventq_index=0
fake_mem=false
pio_addr=9223372036854776808
pio_latency=100000
pio_size=8
power_model=
power_state=board.pc.fake_com_3.power_state
ret_bad_addr=false
ret_data16=65535
ret_data32=4294967295
ret_data64=18446744073709551615
ret_data8=255
system=board
update_data=false
warn_access=
pio=board.iobus.mem_side_ports[12]

[board.pc.fake_com_3.power_state]
type=PowerState
clk_gate_bins=20
clk_gate_max=1000000000000
clk_gate_min=1000
default_state=UNDEFINED
eventq_index=0
leaders=
possible_states=

[board.pc.fake_com_4]
type=IsaFake
children=power_state
clk_domain=board.clk_domain
eventq_index=0
fake_mem=false
pio_addr=9223372036854776552
pio_latency=100000
pio_size=8
power_model=
power_state=board.pc.fake_com_4.power_state
ret_bad_addr=false
ret_data16=65535
ret_data32=4294967295
ret_data64=18446744073709551615
ret_data8=255
system=board
update_data=false
warn_access=
pio=board.iobus.mem_side_ports[13]

[board.pc.fake_com_4.power_state]
type=PowerState
clk_gate_bins=20
clk_gate_max=1000000000000
clk_gate_min=1000
default_state=UNDEFINED
eventq_index=0
leaders=
possible_states=

[board.pc.fake_floppy]
type=IsaFake
children=power_state
clk_domain=board.clk_domain
eventq_index=0
fake_mem=false
pio_addr=9223372036854776818
pio_latency=100000
pio_size=2
power_model=
power_state=board.pc.fake_floppy.power_state
ret_bad_addr=false
ret_data16=65535
ret_data32=4294967295
ret_data64=18446744073709551615
ret_data8=255
system=board
update_data=false
warn_access=
pio=board.iobus.mem_side_ports[14]

[board.pc.fake_floppy.power_state]
type=PowerState
clk_gate_bins=20
clk_gate_max=1000000000000
clk_gate_min=1000
default_state=UNDEFINED
eventq_index=0
leaders=
possible_states=

[board.pc.pci_host]
type=GenericPciHost
children=power_state
clk_domain=board.clk_domain
conf_base=13835058055282163712
conf_device_bits=8
conf_size=16777216
eventq_index=0
pci_dma_base=0
pci_mem_base=0
pci_pio_base=9223372036854775808
platform=board.pc
power_model=
power_state=board.pc.pci_host.power_state
system=board
pio=board.iobus.mem_side_ports[15]

[board.pc.pci_host.power_state]
type=PowerState
clk_gate_bins=20
clk_gate_max=1000000000000
clk_gate_min=1000
default_state=UNDEFINED
eventq_index=0
leaders=
possible_states=

[board.pc.south_bridge]
type=SouthBridge
children=cmos dma1 ide io_apic keyboard pic1 pic2 pit speaker
cmos=board.pc.south_bridge.cmos
dma1=board.pc.south_bridge.dma1
eventq_index=0
io_apic=board.pc.south_bridge.io_apic
keyboard=board.pc.south_bridge.keyboard
pic1=board.pc.south_bridge.pic1
pic2=board.pc.south_bridge.pic2
pit=board.pc.south_bridge.pit
speaker=board.pc.south_bridge.speaker

[board.pc.south_bridge.cmos]
type=Cmos
children=power_state
clk_domain=board.clk_domain
eventq_index=0
pio_addr=9223372036854775920
pio_latency=100000
power_model=
power_state=board.pc.south_bridge.cmos.power_state
system=board
time=Sun Jan  1 00:00:00 2012
int_pin=board.pc.south_bridge.pic2.inputs[0]
pio=board.iobus.mem_side_ports[1]

[board.pc.south_bridge.cmos.power_state]
type=PowerState
clk_gate_bins=20
clk_gate_max=1000000000000
clk_gate_min=1000
default_state=UNDEFINED
eventq_index=0
leaders=
possible_states=

[board.pc.south_bridge.dma1]
type=I8237
children=power_state
clk_domain=board.clk_domain
eventq_index=0
pio_addr=9223372036854775808
pio_latency=100000
power_model=
power_state=board.pc.south_bridge.dma1.power_state
system=board
pio=board.iobus.mem_side_ports[2]

[board.pc.south_bridge.dma1.power_state]
type=PowerState
clk_gate_bins=20
clk_gate_max=1000000000000
clk_gate_min=1000
default_state=UNDEFINED
eventq_index=0
leaders=
possible_states=

[board.pc.south_bridge.ide]
type=X86IdeController
children=BAR0 BAR1 BAR2 BAR3 BAR4 BAR5 disks power_state
BAR0=board.pc.south_bridge.ide.BAR0
BAR1=board.pc.south_bridge.ide.BAR1
BAR2=board.pc.south_bridge.ide.BAR2
BAR3=board.pc.south_bridge.ide.BAR3